<?xml version="1.0" encoding="UTF-8"?>
<ui version="4.0">
 <class>DelineationDialog</class>
 <widget class="QDialog" name="DelineationDialog">
  <property name="geometry">
   <rect>
    <x>0</x>
    <y>0</y>
    <width>544</width>
    <height>620</height>
   </rect>
  </property>
  <property name="sizePolicy">
   <sizepolicy hsizetype="Preferred" vsizetype="Minimum">
    <horstretch>0</horstretch>
    <verstretch>0</verstretch>
   </sizepolicy>
  </property>
  <property name="windowTitle">
   <string>Delineate Watershed</string>
  </property>
  <property name="windowIcon">
   <iconset resource="resources.qrc">
    <normaloff>:/plugins/QSWATPlus/swatplus.ico</normaloff>:/plugins/QSWATPlus/swatplus.ico</iconset>
  </property>
  <property name="sizeGripEnabled">
   <bool>false</bool>
  </property>
  <layout class="QGridLayout" name="gridLayout_14">
   <item row="0" column="0" colspan="5">
    <widget class="QGroupBox" name="demGroup">
     <property name="title">
      <string>Select DEM</string>
     </property>
     <layout class="QGridLayout" name="gridLayout">
      <item row="0" column="1">
       <widget class="QPushButton" name="selectDemButton">
        <property name="sizePolicy">
         <sizepolicy hsizetype="Fixed" vsizetype="Fixed">
          <horstretch>0</horstretch>
          <verstretch>0</verstretch>
         </sizepolicy>
        </property>
        <property name="toolTip">
         <string>The digital elevation map, or DEM, is the basis for watershed delineation.  Click this button to select a DEM file.</string>
        </property>
        <property name="text">
         <string>. . .</string>
        </property>
       </widget>
      </item>
      <item row="0" column="0">
       <widget class="QLineEdit" name="selectDem">
        <property name="sizePolicy">
         <sizepolicy hsizetype="Preferred" vsizetype="Fixed">
          <horstretch>0</horstretch>
          <verstretch>0</verstretch>
         </sizepolicy>
        </property>
       </widget>
      </item>
     </layout>
    </widget>
   </item>
   <item row="1" column="0" colspan="5">
    <widget class="QTabWidget" name="tabWidget">
     <property name="toolTip">
      <string notr="true"/>
     </property>
     <property name="currentIndex">
      <number>0</number>
     </property>
     <widget class="QWidget" name="delinTab">
      <attribute name="title">
       <string>Delineate watershed</string>
      </attribute>
      <layout class="QGridLayout" name="gridLayout_4">
       <item row="2" column="0" colspan="4">
        <widget class="QWidget" name="thresholdWidget" native="true">
         <layout class="QGridLayout" name="gridLayout_10">
          <item row="0" column="0">
           <widget class="QLabel" name="thresholdLabelCh">
            <property name="toolTip">
             <string>&lt;html&gt;&lt;head/&gt;&lt;body&gt;&lt;p&gt;The threshold number of cells is the minimum number required to form a channel at a leaf of the channel network.&lt;/p&gt;&lt;/body&gt;&lt;/html&gt;</string>
            </property>
            <property name="text">
             <string>     Channel threshold</string>
            </property>
           </widget>
          </item>
          <item row="0" column="1">
           <widget class="QLineEdit" name="numCellsCh">
            <property name="sizePolicy">
             <sizepolicy hsizetype="Preferred" vsizetype="Fixed">
              <horstretch>0</horstretch>
              <verstretch>0</verstretch>
             </sizepolicy>
            </property>
            <property name="minimumSize">
             <size>
              <width>50</width>
              <height>20</height>
             </size>
            </property>
            <property name="toolTip">
             <string>&lt;html&gt;&lt;head/&gt;&lt;body&gt;&lt;p&gt;The minimum number of cells required to create a channel as a leaf of the channel network&lt;/p&gt;&lt;/body&gt;&lt;/html&gt;</string>
            </property>
           </widget>
          </item>
          <item row="0" column="2">
           <widget class="QLabel" name="numCellsLabelCh">
            <property name="sizePolicy">
             <sizepolicy hsizetype="Preferred" vsizetype="Fixed">
              <horstretch>0</horstretch>
              <verstretch>0</verstretch>
             </sizepolicy>
            </property>
            <property name="toolTip">
             <string>The threshold number of cells is the minimum number required to form a stream at a leaf of the stream network.</string>
            </property>
            <property name="text">
             <string>Cells</string>
            </property>
           </widget>
          </item>
          <item row="0" column="3">
           <widget class="QLineEdit" name="areaCh">
            <property name="sizePolicy">
             <sizepolicy hsizetype="Preferred" vsizetype="Fixed">
              <horstretch>0</horstretch>
              <verstretch>0</verstretch>
             </sizepolicy>
            </property>
            <property name="minimumSize">
             <size>
              <width>50</width>
              <height>20</height>
             </size>
            </property>
            <property name="toolTip">
             <string>&lt;html&gt;&lt;head/&gt;&lt;body&gt;&lt;p&gt;The minimum area required to create a channel as a leaf of the channel network&lt;/p&gt;&lt;/body&gt;&lt;/html&gt;</string>
            </property>
           </widget>
          </item>
          <item row="0" column="4">
           <widget class="QLabel" name="areaLabelCh">
            <property name="sizePolicy">
             <sizepolicy hsizetype="Preferred" vsizetype="Fixed">
              <horstretch>0</horstretch>
              <verstretch>0</verstretch>
             </sizepolicy>
            </property>
            <property name="text">
             <string>Area</string>
            </property>
           </widget>
          </item>
          <item row="0" column="5" rowspan="2">
           <widget class="QComboBox" name="areaUnitsBox">
            <property name="sizePolicy">
             <sizepolicy hsizetype="Preferred" vsizetype="Fixed">
              <horstretch>0</horstretch>
              <verstretch>0</verstretch>
             </sizepolicy>
            </property>
           </widget>
          </item>
          <item row="1" column="0">
           <widget class="QLabel" name="thresholdLabelSt">
            <property name="toolTip">
             <string>&lt;html&gt;&lt;head/&gt;&lt;body&gt;&lt;p&gt;The threshold number of cells is the minimum number required to form a stream (and hence a subbasin) at a leaf of the stream network.&lt;/p&gt;&lt;/body&gt;&lt;/html&gt;</string>
            </property>
            <property name="text">
             <string>       Stream threshold</string>
            </property>
           </widget>
          </item>
          <item row="1" column="1">
           <widget class="QLineEdit" name="numCellsSt">
            <property name="sizePolicy">
             <sizepolicy hsizetype="Preferred" vsizetype="Fixed">
              <horstretch>0</horstretch>
              <verstretch>0</verstretch>
             </sizepolicy>
            </property>
            <property name="minimumSize">
             <size>
              <width>50</width>
              <height>20</height>
             </size>
            </property>
            <property name="toolTip">
             <string>&lt;html&gt;&lt;head/&gt;&lt;body&gt;&lt;p&gt;The threshold number of cells is the minimum number required to form a stream (and hence a subbasin) at a leaf of the stream network.&lt;/p&gt;&lt;/body&gt;&lt;/html&gt;</string>
            </property>
           </widget>
          </item>
          <item row="1" column="2">
           <widget class="QLabel" name="numCellsLabelSt">
            <property name="sizePolicy">
             <sizepolicy hsizetype="Preferred" vsizetype="Fixed">
              <horstretch>0</horstretch>
              <verstretch>0</verstretch>
             </sizepolicy>
            </property>
            <property name="toolTip">
             <string>The threshold number of cells is the minimum number required to form a stream at a leaf of the stream network.</string>
            </property>
            <property name="text">
             <string>Cells</string>
            </property>
           </widget>
          </item>
          <item row="1" column="3">
           <widget class="QLineEdit" name="areaSt">
            <property name="sizePolicy">
             <sizepolicy hsizetype="Preferred" vsizetype="Fixed">
              <horstretch>0</horstretch>
              <verstretch>0</verstretch>
             </sizepolicy>
            </property>
            <property name="minimumSize">
             <size>
              <width>50</width>
              <height>20</height>
             </size>
            </property>
            <property name="toolTip">
             <string>&lt;html&gt;&lt;head/&gt;&lt;body&gt;&lt;p&gt;The minimum area required to create a stream (and hence a subbasin) as a leaf of the stream network&lt;/p&gt;&lt;/body&gt;&lt;/html&gt;</string>
            </property>
           </widget>
          </item>
          <item row="1" column="4">
           <widget class="QLabel" name="areaLabelSt">
            <property name="sizePolicy">
             <sizepolicy hsizetype="Preferred" vsizetype="Fixed">
              <horstretch>0</horstretch>
              <verstretch>0</verstretch>
             </sizepolicy>
            </property>
            <property name="text">
             <string>Area</string>
            </property>
           </widget>
          </item>
         </layout>
        </widget>
       </item>
       <item row="0" column="0" colspan="3">
        <widget class="QCheckBox" name="checkBurn">
         <property name="sizePolicy">
          <sizepolicy hsizetype="Minimum" vsizetype="Fixed">
           <horstretch>0</horstretch>
           <verstretch>0</verstretch>
          </sizepolicy>
         </property>
         <property name="toolTip">
          <string>An existing stream network may be burnt in to make delineation more accurate, particularly in flat areas</string>
         </property>
         <property name="text">
          <string>Burn in existing stream network</string>
         </property>
        </widget>
       </item>
       <item row="2" column="4" colspan="2">
        <widget class="QPushButton" name="delinRunButton1">
         <property name="sizePolicy">
          <sizepolicy hsizetype="Preferred" vsizetype="Fixed">
           <horstretch>0</horstretch>
           <verstretch>0</verstretch>
          </sizepolicy>
         </property>
         <property name="toolTip">
          <string>Create streams first if you want to place inlets/outlets interactively.</string>
         </property>
         <property name="text">
          <string>Create streams</string>
         </property>
        </widget>
       </item>
       <item row="3" column="0" colspan="3">
        <widget class="QCheckBox" name="useOutlets">
         <property name="toolTip">
          <string>The inlets outlets file defines inlets, outlets, reservoirs and point sources.  It must contain at least one outlet.</string>
         </property>
         <property name="text">
          <string>Use an inlets/outlets shapefile</string>
         </property>
         <property name="checked">
          <bool>true</bool>
         </property>
        </widget>
       </item>
       <item row="6" column="4" colspan="2">
        <widget class="QPushButton" name="delinRunButton2">
         <property name="sizePolicy">
          <sizepolicy hsizetype="Preferred" vsizetype="Fixed">
           <horstretch>0</horstretch>
           <verstretch>0</verstretch>
          </sizepolicy>
         </property>
         <property name="minimumSize">
          <size>
           <width>120</width>
           <height>0</height>
          </size>
         </property>
         <property name="toolTip">
          <string>Create the streams and the watershed and subbasin boundaries.</string>
         </property>
         <property name="text">
          <string>Create watershed</string>
         </property>
        </widget>
       </item>
       <item row="4" column="0" colspan="5">
        <widget class="QLineEdit" name="selectOutlets">
         <property name="sizePolicy">
          <sizepolicy hsizetype="Preferred" vsizetype="Fixed">
           <horstretch>0</horstretch>
           <verstretch>0</verstretch>
          </sizepolicy>
         </property>
        </widget>
       </item>
       <item row="5" column="0" colspan="5">
        <widget class="QWidget" name="outletsWidget" native="true">
         <property name="enabled">
          <bool>true</bool>
         </property>
         <layout class="QGridLayout" name="gridLayout_3">
          <item row="0" column="0">
           <widget class="QPushButton" name="drawOutletsButton">
            <property name="sizePolicy">
             <sizepolicy hsizetype="Minimum" vsizetype="Fixed">
              <horstretch>0</horstretch>
              <verstretch>0</verstretch>
             </sizepolicy>
            </property>
            <property name="minimumSize">
             <size>
              <width>0</width>
              <height>0</height>
             </size>
            </property>
            <property name="toolTip">
             <string>Place inlets, outlets, reservoirs, and point sources by clicking on the stream network.</string>
            </property>
            <property name="text">
             <string>Draw inlets/outlets</string>
            </property>
           </widget>
          </item>
          <item row="0" column="1">
           <widget class="QPushButton" name="selectOutletsInteractiveButton">
            <property name="sizePolicy">
             <sizepolicy hsizetype="Minimum" vsizetype="Fixed">
              <horstretch>0</horstretch>
              <verstretch>0</verstretch>
             </sizepolicy>
            </property>
            <property name="toolTip">
             <string>Interactively select which inlets, outlets, reservoirs and point sources to use. You only need to do this if you want to use only a subset of what is in the shapefile. The default is to use all the points in the shapefile.</string>
            </property>
            <property name="text">
             <string>Select inlets/outlets</string>
            </property>
           </widget>
          </item>
          <item row="0" column="2">
           <widget class="QLabel" name="selectOutletsInteractiveLabel">
            <property name="minimumSize">
             <size>
              <width>111</width>
              <height>0</height>
             </size>
            </property>
            <property name="toolTip">
             <string>The number of points in the inlets/outlets shapefile that will be used.</string>
            </property>
            <property name="text">
             <string/>
            </property>
           </widget>
          </item>
          <item row="1" column="0" colspan="2">
           <widget class="QLabel" name="snapThresholdLabel">
            <property name="sizePolicy">
             <sizepolicy hsizetype="Preferred" vsizetype="Fixed">
              <horstretch>0</horstretch>
              <verstretch>0</verstretch>
             </sizepolicy>
            </property>
            <property name="minimumSize">
             <size>
              <width>0</width>
              <height>13</height>
             </size>
            </property>
            <property name="text">
             <string>Snap threshold (metres)</string>
            </property>
           </widget>
          </item>
          <item row="2" column="0">
           <widget class="QLineEdit" name="snapThreshold">
            <property name="sizePolicy">
             <sizepolicy hsizetype="Minimum" vsizetype="Fixed">
              <horstretch>0</horstretch>
              <verstretch>0</verstretch>
             </sizepolicy>
            </property>
            <property name="minimumSize">
             <size>
              <width>0</width>
              <height>0</height>
             </size>
            </property>
            <property name="toolTip">
             <string>The maximum distance a point may be moved to place it on the stream network (snapped).  Points which would require more than this distance will not be used.</string>
            </property>
           </widget>
          </item>
          <item row="2" column="1">
           <widget class="QPushButton" name="snapReviewButton">
            <property name="sizePolicy">
             <sizepolicy hsizetype="Minimum" vsizetype="Fixed">
              <horstretch>0</horstretch>
              <verstretch>0</verstretch>
             </sizepolicy>
            </property>
            <property name="toolTip">
             <string>Optionally, click to load and view the snapped inlets/outlets layer. The snapped points will be used whether you load them or not.</string>
            </property>
            <property name="text">
             <string>Review snapped</string>
            </property>
           </widget>
          </item>
          <item row="2" column="2">
           <widget class="QLabel" name="snappedLabel">
            <property name="minimumSize">
             <size>
              <width>111</width>
              <height>0</height>
             </size>
            </property>
            <property name="toolTip">
             <string>The number of points successfully snapped to the stream network.</string>
            </property>
            <property name="text">
             <string/>
            </property>
           </widget>
          </item>
         </layout>
        </widget>
       </item>
       <item row="1" column="0" colspan="5">
        <widget class="QLineEdit" name="selectBurn">
         <property name="enabled">
          <bool>false</bool>
         </property>
        </widget>
       </item>
       <item row="6" column="3">
        <spacer name="horizontalSpacer_4">
         <property name="orientation">
          <enum>Qt::Horizontal</enum>
         </property>
         <property name="sizeHint" stdset="0">
          <size>
           <width>425</width>
           <height>20</height>
          </size>
         </property>
        </spacer>
       </item>
       <item row="6" column="0">
        <widget class="QCheckBox" name="gridBox">
         <property name="sizePolicy">
          <sizepolicy hsizetype="Minimum" vsizetype="Fixed">
           <horstretch>0</horstretch>
           <verstretch>0</verstretch>
          </sizepolicy>
         </property>
         <property name="toolTip">
          <string>This option creates a grid of squares covering your watershed (running TauDEM first to create it)  The squares replace the subbasins originally created by TauDEM.</string>
         </property>
         <property name="text">
          <string>Make grid</string>
         </property>
        </widget>
       </item>
       <item row="6" column="1">
        <widget class="QSpinBox" name="gridSize">
         <property name="sizePolicy">
          <sizepolicy hsizetype="Minimum" vsizetype="Fixed">
           <horstretch>0</horstretch>
           <verstretch>0</verstretch>
          </sizepolicy>
         </property>
         <property name="minimumSize">
          <size>
           <width>0</width>
           <height>20</height>
          </size>
         </property>
         <property name="toolTip">
          <string>Set the size of each side of the grid squares in terms of a number of DEM cells.</string>
         </property>
         <property name="minimum">
          <number>1</number>
         </property>
        </widget>
       </item>
       <item row="6" column="2">
        <widget class="QLabel" name="gridSizeLabel">
         <property name="sizePolicy">
          <sizepolicy hsizetype="Preferred" vsizetype="Minimum">
           <horstretch>0</horstretch>
           <verstretch>0</verstretch>
          </sizepolicy>
         </property>
         <property name="text">
          <string>Grid size</string>
         </property>
        </widget>
       </item>
       <item row="5" column="5">
        <spacer name="verticalSpacer">
         <property name="orientation">
          <enum>Qt::Vertical</enum>
         </property>
         <property name="sizeHint" stdset="0">
          <size>
           <width>20</width>
           <height>85</height>
          </size>
         </property>
        </spacer>
       </item>
       <item row="1" column="5">
        <widget class="QPushButton" name="burnButton">
         <property name="enabled">
          <bool>false</bool>
         </property>
         <property name="sizePolicy">
          <sizepolicy hsizetype="Fixed" vsizetype="Fixed">
           <horstretch>0</horstretch>
           <verstretch>0</verstretch>
          </sizepolicy>
         </property>
         <property name="toolTip">
          <string>An existing stream network may be burnt in to make delineation more accurate, particularly in flat areas.  Click this button to select a streams file for burning in.</string>
         </property>
         <property name="text">
          <string>. . .</string>
         </property>
        </widget>
       </item>
       <item row="4" column="5">
        <widget class="QPushButton" name="selectOutletsButton">
         <property name="sizePolicy">
          <sizepolicy hsizetype="Fixed" vsizetype="Fixed">
           <horstretch>0</horstretch>
           <verstretch>0</verstretch>
          </sizepolicy>
         </property>
         <property name="toolTip">
          <string>The inlets outlets file defines inlets, outlets, reservoirs and point sources.  It must contain at least one outlet.  Click this button to select an inlets/outlets shapefile.</string>
         </property>
         <property name="text">
          <string>. . .</string>
         </property>
        </widget>
       </item>
      </layout>
      <zorder>thresholdWidget</zorder>
      <zorder>checkBurn</zorder>
      <zorder>delinRunButton1</zorder>
      <zorder>useOutlets</zorder>
      <zorder>delinRunButton2</zorder>
      <zorder>selectOutlets</zorder>
      <zorder>outletsWidget</zorder>
      <zorder>selectBurn</zorder>
      <zorder>horizontalSpacer_4</zorder>
      <zorder>gridBox</zorder>
      <zorder>gridSize</zorder>
      <zorder>gridSizeLabel</zorder>
      <zorder>verticalSpacer</zorder>
      <zorder>burnButton</zorder>
      <zorder>selectOutletsButton</zorder>
     </widget>
     <widget class="QWidget" name="existTab">
      <attribute name="title">
       <string>Use existing watershed</string>
      </attribute>
      <layout class="QGridLayout" name="gridLayout_13">
       <item row="0" column="0">
        <widget class="QCheckBox" name="useGrid">
         <property name="toolTip">
          <string>Use a watershed grid to define the watershed and subbasins.</string>
         </property>
         <property name="text">
          <string>Use grid model</string>
         </property>
        </widget>
       </item>
       <item row="0" column="1" rowspan="2" colspan="2">
        <widget class="QGroupBox" name="drainGroupBox">
         <property name="sizePolicy">
          <sizepolicy hsizetype="MinimumExpanding" vsizetype="Minimum">
           <horstretch>0</horstretch>
           <verstretch>0</verstretch>
          </sizepolicy>
         </property>
         <property name="title">
          <string>Drainage definition</string>
         </property>
         <layout class="QGridLayout" name="gridLayout_5">
          <item row="0" column="0">
           <widget class="QRadioButton" name="drainGridButton">
            <property name="toolTip">
             <string>Use PolygonId and DownId fields in the watershed shapefile to define the drainage pattern.</string>
            </property>
            <property name="text">
             <string>Grid shapefile</string>
            </property>
            <property name="checked">
             <bool>false</bool>
            </property>
           </widget>
          </item>
          <item row="0" column="2">
           <widget class="QRadioButton" name="drainTableButton">
            <property name="toolTip">
             <string>Use a csv file to define the drainage pattern.</string>
            </property>
            <property name="text">
             <string>Drainage table</string>
            </property>
           </widget>
          </item>
          <item row="0" column="1">
           <widget class="QRadioButton" name="drainStreamsButton">
            <property name="toolTip">
             <string>Use a streams shapefile to define the drainage pattern.</string>
            </property>
            <property name="text">
             <string>Streams shapefile    </string>
            </property>
            <property name="checked">
             <bool>true</bool>
            </property>
           </widget>
          </item>
         </layout>
        </widget>
       </item>
       <item row="1" column="0">
        <widget class="QLabel" name="selectSubbasinsLabel">
         <property name="text">
          <string>Subbasins shapefile</string>
         </property>
        </widget>
       </item>
       <item row="2" column="0" colspan="2">
        <widget class="QLineEdit" name="selectSubbasins">
         <property name="sizePolicy">
          <sizepolicy hsizetype="Expanding" vsizetype="Preferred">
           <horstretch>0</horstretch>
           <verstretch>0</verstretch>
          </sizepolicy>
         </property>
        </widget>
       </item>
       <item row="2" column="2">
        <widget class="QPushButton" name="selectSubbasinsButton">
         <property name="sizePolicy">
          <sizepolicy hsizetype="Fixed" vsizetype="Fixed">
           <horstretch>0</horstretch>
           <verstretch>0</verstretch>
          </sizepolicy>
         </property>
         <property name="toolTip">
          <string>Select a polygon shapefile showing the subbasins and watershed boundary</string>
         </property>
         <property name="text">
          <string>. . .</string>
         </property>
        </widget>
       </item>
       <item row="3" column="0">
        <widget class="QLabel" name="selectWshedLabel">
         <property name="text">
          <string>Watershed shapefile</string>
         </property>
        </widget>
       </item>
       <item row="4" column="0" colspan="2">
        <widget class="QLineEdit" name="selectWshed">
         <property name="sizePolicy">
          <sizepolicy hsizetype="Preferred" vsizetype="Fixed">
           <horstretch>0</horstretch>
           <verstretch>0</verstretch>
          </sizepolicy>
         </property>
        </widget>
       </item>
       <item row="4" column="2">
        <widget class="QPushButton" name="selectWshedButton">
         <property name="sizePolicy">
          <sizepolicy hsizetype="Fixed" vsizetype="Fixed">
           <horstretch>0</horstretch>
           <verstretch>0</verstretch>
          </sizepolicy>
         </property>
         <property name="toolTip">
          <string>&lt;html&gt;&lt;head/&gt;&lt;body&gt;&lt;p&gt;Select a polygon shapefile showing the drainage areas for all the channels in the channels shapefile.&lt;/p&gt;&lt;p&gt;&lt;br/&gt;&lt;/p&gt;&lt;p&gt;This is usually more detailed than the subbasins shapefile, but can be the same file.&lt;/p&gt;&lt;p&gt;&lt;br/&gt;&lt;/p&gt;&lt;/body&gt;&lt;/html&gt;</string>
         </property>
         <property name="text">
          <string>. . .</string>
         </property>
        </widget>
       </item>
       <item row="5" column="0">
        <widget class="QLabel" name="selectStreamsLabel">
         <property name="text">
          <string>Streams shapefile</string>
         </property>
        </widget>
       </item>
       <item row="6" column="0" colspan="2">
        <widget class="QLineEdit" name="selectStreams">
         <property name="sizePolicy">
          <sizepolicy hsizetype="Preferred" vsizetype="Fixed">
           <horstretch>0</horstretch>
           <verstretch>0</verstretch>
          </sizepolicy>
         </property>
        </widget>
       </item>
       <item row="6" column="2">
        <widget class="QPushButton" name="selectStreamsButton">
         <property name="sizePolicy">
          <sizepolicy hsizetype="Fixed" vsizetype="Fixed">
           <horstretch>0</horstretch>
           <verstretch>0</verstretch>
          </sizepolicy>
         </property>
         <property name="toolTip">
          <string>Select a line shapefile showing the stream network</string>
         </property>
         <property name="text">
          <string>. . .</string>
         </property>
        </widget>
       </item>
       <item row="7" column="0" colspan="2">
        <widget class="QLabel" name="selectExistOutletsLabel">
         <property name="text">
          <string>Inlets/outlets shapefile (optional)</string>
         </property>
        </widget>
       </item>
       <item row="8" column="0" colspan="2">
        <widget class="QLineEdit" name="selectExistOutlets">
         <property name="sizePolicy">
          <sizepolicy hsizetype="Preferred" vsizetype="Fixed">
           <horstretch>0</horstretch>
           <verstretch>0</verstretch>
          </sizepolicy>
         </property>
        </widget>
       </item>
       <item row="8" column="2">
        <widget class="QPushButton" name="selectExistOutletsButton">
         <property name="sizePolicy">
          <sizepolicy hsizetype="Fixed" vsizetype="Fixed">
           <horstretch>0</horstretch>
           <verstretch>0</verstretch>
          </sizepolicy>
         </property>
         <property name="toolTip">