<?xml version="1.0" encoding="UTF-8"?>
<ui version="4.0">
 <class>GraphDlg</class>
 <widget class="QDialog" name="GraphDlg">
  <property name="geometry">
   <rect>
    <x>0</x>
    <y>0</y>
    <width>1153</width>
    <height>590</height>
   </rect>
  </property>
  <property name="windowTitle">
   <string>SWATGraph</string>
  </property>
  <property name="windowIcon">
   <iconset resource="resources.qrc">
    <normaloff>:/plugins/QSWATPlus/SWATPlus32.ico</normaloff>:/plugins/QSWATPlus/SWATPlus32.ico</iconset>
  </property>
  <property name="sizeGripEnabled">
   <bool>true</bool>
  </property>
  <layout class="QGridLayout" name="gridLayout">
   <item row="3" column="1">
    <widget class="QTableWidget" name="table">
     <property name="sizePolicy">
      <sizepolicy hsizetype="Expanding" vsizetype="Preferred">
       <horstretch>0</horstretch>
       <verstretch>0</verstretch>
      </sizepolicy>
     </property>
     <property name="editTriggers">
      <set>QAbstractItemView::NoEditTriggers</set>
     </property>
     <property name="alternatingRowColors">
      <bool>true</bool>
     </property>
     <attribute name="verticalHeaderVisible">
      <bool>false</bool>
     </attribute>
    </widget>
   </item>
   <item row="3" column="2" rowspan="2">
    <widget class="QWidget" name="widget" native="true">
     <property name="sizePolicy">
      <sizepolicy hsizetype="Fixed" vsizetype="Fixed">
       <horstretch>0</horstretch>
       <verstretch>0</verstretch>
      </sizepolicy>
     </property>
     <property name="minimumSize">
      <size>
       <width>201</width>
       <height>251</height>
      </size>
     </property>
     <property name="focusPolicy">
      <enum>Qt::WheelFocus</enum>
     </property>
     <widget class="QPushButton" name="newFile">
      <property name="geometry">
       <rect>
        <x>21</x>
        <y>90</y>
        <width>81</width>
        <height>41</height>
       </rect>
      </property>
      <property name="text">
       <string>New File
to Plot</string>
      </property>
     </widget>
     <widget class="QPushButton" name="closeForm">
      <property name="geometry">
       <rect>
        <x>120</x>
        <y>110</y>
        <width>75</width>
        <height>23</height>
       </rect>
      </property>
      <property name="text">
       <string>Close</string>
      </property>
     </widget>
     <widget class="QComboBox" name="lineOrBar">
      <property name="geometry">
       <rect>
        <x>20</x>
        <y>50</y>
        <width>90</width>
        <height>20</height>
       </rect>
      </property>
      <property name="minimumSize">
       <size>
        <width>90</width>
        <height>0</height>
       </size>
      </property>
      <property name="maxVisibleItems">
       <number>2</number>
      </property>
     </widget>
     <widget class="QLabel" name="label">
      <property name="geometry">
       <rect>
        <x>20</x>
        <y>30</y>
        <width>82</width>
        <height>16</height>
       </rect>
      </property>
      <property name="text">
       <string>Chart Type</string>
      </property>
      <property name="alignment">
       <set>Qt::AlignCenter</set>
      </property>
     </widget>
     <widget class="QPushButton" name="updateButton">
      <property name="geometry">
       <rect>
        <x>120</x>
        <y>50</y>
        <width>75</width>
        <height>23</height>
       </rect>
      </property>
      <property name="text">
       <string>Update</string>
      </property>
     </widget>
    </widget>
   </item>
   <item row="4" column="1">
    <widget class="QTextBrowser" name="coeffs">
     <property name="sizePolicy">
      <sizepolicy hsizetype="Expanding" vsizetype="Preferred">
       <horstretch>0</horstretch>
       <verstretch>0</verstretch>
      </sizepolicy>
     </property>
    </widget>
   </item>
   <item row="2" column="1" colspan="2">
    <widget class="QWidget" name="graph" native="true">
     <property name="sizePolicy">
      <sizepolicy hsizetype="Preferred" vsizetype="Expanding">
       <horstretch>0</horstretch>
       <verstretch>0</verstretch>
      </sizepolicy>
     </property>
     <layout class="QVBoxLayout" name="graphvl"/>
    </widget>
   </item>
  </layout>
 </widget>
 <resources>
  <include location="resources.qrc"/>
 </resources>
 <connections/>
</ui>
