<?xml version="1.0" encoding="UTF-8"?>
<ui version="4.0">
 <class>HRUDialog</class>
 <widget class="QDialog" name="HRUDialog">
  <property name="geometry">
   <rect>
    <x>0</x>
    <y>0</y>
    <width>578</width>
    <height>797</height>
   </rect>
  </property>
  <property name="sizePolicy">
   <sizepolicy hsizetype="Preferred" vsizetype="Preferred">
    <horstretch>0</horstretch>
    <verstretch>0</verstretch>
   </sizepolicy>
  </property>
  <property name="windowTitle">
   <string>Create HRUs</string>
  </property>
  <property name="windowIcon">
   <iconset>
    <normaloff>:/plugins/QSWATPlus/SWATPlus32.ico</normaloff>:/plugins/QSWATPlus/SWATPlus32.ico</iconset>
  </property>
  <property name="sizeGripEnabled">
   <bool>false</bool>
  </property>
  <layout class="QGridLayout" name="gridLayout_6">
   <item row="0" column="0" colspan="3">
    <widget class="QWidget" name="widget_2" native="true">
     <property name="sizePolicy">
      <sizepolicy hsizetype="Preferred" vsizetype="Preferred">
       <horstretch>0</horstretch>
       <verstretch>0</verstretch>
      </sizepolicy>
     </property>
     <layout class="QGridLayout" name="gridLayout_2">
      <item row="0" column="0">
       <widget class="QLabel" name="selectLanduseLabel">
        <property name="text">
         <string>Select landuse map</string>
        </property>
       </widget>
      </item>
      <item row="1" column="6">
       <widget class="QPushButton" name="selectLanduseButton">
        <property name="sizePolicy">
         <sizepolicy hsizetype="MinimumExpanding" vsizetype="Fixed">
          <horstretch>0</horstretch>
          <verstretch>0</verstretch>
         </sizepolicy>
        </property>
        <property name="toolTip">
         <string>Select landuse raster</string>
        </property>
        <property name="autoFillBackground">
         <bool>false</bool>
        </property>
        <property name="text">
         <string>. . .</string>
        </property>
        <property name="autoDefault">
         <bool>false</bool>
        </property>
        <property name="flat">
         <bool>false</bool>
        </property>
        <property name="browseButton" stdset="0">
         <bool>true</bool>
        </property>
       </widget>
      </item>
      <item row="2" column="0">
       <widget class="QLabel" name="selectSoilLabel">
        <property name="text">
         <string>Select soil map</string>
        </property>
       </widget>
      </item>
      <item row="2" column="1" colspan="4">
       <spacer name="horizontalSpacer_3">
        <property name="orientation">
         <enum>Qt::Horizontal</enum>
        </property>
        <property name="sizeHint" stdset="0">
         <size>
          <width>399</width>
          <height>20</height>
         </size>
        </property>
       </spacer>
      </item>
      <item row="2" column="5">
       <widget class="QLabel" name="landuseTableLabel">
        <property name="text">
         <string>Landuse table</string>
        </property>
       </widget>
      </item>
      <item row="2" column="6">
       <widget class="QComboBox" name="selectLanduseTable">
        <property name="sizePolicy">
         <sizepolicy hsizetype="MinimumExpanding" vsizetype="Fixed">
          <horstretch>0</horstretch>
          <verstretch>0</verstretch>
         </sizepolicy>
        </property>
        <property name="toolTip">
         <string>&lt;html&gt;&lt;head/&gt;&lt;body&gt;&lt;p&gt;Select table in project database mapping landuse grid values to  landuse codes defined in either a plant or urban landuse table in the landuse and soil database&lt;/p&gt;&lt;/body&gt;&lt;/html&gt;</string>
        </property>
       </widget>
      </item>
      <item row="3" column="6">
       <widget class="QPushButton" name="selectSoilButton">
        <property name="sizePolicy">
         <sizepolicy hsizetype="MinimumExpanding" vsizetype="Fixed">
          <horstretch>0</horstretch>
          <verstretch>0</verstretch>
         </sizepolicy>
        </property>
        <property name="toolTip">
         <string>Select soil raster</string>
        </property>
        <property name="text">
         <string>. . .</string>
        </property>
        <property name="autoDefault">
         <bool>false</bool>
        </property>
       </widget>
      </item>
      <item row="4" column="0" colspan="5">
       <widget class="QGroupBox" name="soilGroup">
        <property name="minimumSize">
         <size>
          <width>0</width>
          <height>51</height>
         </size>
        </property>
        <property name="maximumSize">
         <size>
          <width>16777215</width>
          <height>16777215</height>
         </size>
        </property>
        <property name="title">
         <string>Soil data</string>
        </property>
        <widget class="QRadioButton" name="usersoilButton">
         <property name="geometry">
          <rect>
           <x>11</x>
           <y>24</y>
           <width>117</width>
           <height>16</height>
          </rect>
         </property>
         <property name="text">
          <string>usersoil</string>
         </property>
         <property name="checked">
          <bool>true</bool>
         </property>
        </widget>
        <widget class="QRadioButton" name="STATSGOButton">
         <property name="geometry">
          <rect>
           <x>134</x>
           <y>24</y>
           <width>116</width>
           <height>16</height>
          </rect>
         </property>
         <property name="text">
          <string>STATSGO</string>
         </property>
        </widget>
        <widget class="QRadioButton" name="SSURGOButton">
         <property name="geometry">
          <rect>
           <x>256</x>
           <y>24</y>
           <width>118</width>
           <height>16</height>
          </rect>
         </property>
         <property name="text">
          <string>SSURGO/STATSGO2</string>
         </property>
        </widget>
       </widget>
      </item>
      <item row="4" column="5">
       <widget class="QLabel" name="soilTableLabel">
        <property name="text">
         <string>       Soil table</string>
        </property>
       </widget>
      </item>
      <item row="4" column="6">
       <widget class="QComboBox" name="selectSoilTable">
        <property name="sizePolicy">
         <sizepolicy hsizetype="MinimumExpanding" vsizetype="Fixed">
          <horstretch>0</horstretch>
          <verstretch>0</verstretch>
         </sizepolicy>
        </property>
        <property name="toolTip">
         <string>&lt;html&gt;&lt;head/&gt;&lt;body&gt;&lt;p&gt;Select table in project database mapping soil raster values to soil names in a usersoil table in the landuse and soil database&lt;/p&gt;&lt;/body&gt;&lt;/html&gt;</string>
        </property>
       </widget>
      </item>
      <item row="6" column="6">
       <widget class="QPushButton" name="selectPlantSoilDatabaseButton">
        <property name="sizePolicy">
         <sizepolicy hsizetype="MinimumExpanding" vsizetype="Fixed">
          <horstretch>0</horstretch>
          <verstretch>0</verstretch>
         </sizepolicy>
        </property>
        <property name="toolTip">
         <string>Select database with tables defining landuse and soil attributes</string>
        </property>
        <property name="text">
         <string>. . .</string>
        </property>
        <property name="autoDefault">
         <bool>false</bool>
        </property>
       </widget>
      </item>
      <item row="7" column="0">
       <spacer name="horizontalSpacer_2">
        <property name="orientation">
         <enum>Qt::Horizontal</enum>
        </property>
        <property name="sizeHint" stdset="0">
         <size>
          <width>403</width>
          <height>20</height>
         </size>
        </property>
       </spacer>
      </item>
      <item row="7" column="1">
       <widget class="QLabel" name="selectPlantTableLabel">
        <property name="text">
         <string>Plant table  </string>
        </property>
        <property name="alignment">
         <set>Qt::AlignRight|Qt::AlignTrailing|Qt::AlignVCenter</set>
        </property>
       </widget>
      </item>
      <item row="7" column="2">
       <widget class="QComboBox" name="selectPlantTable">
        <property name="sizePolicy">
         <sizepolicy hsizetype="MinimumExpanding" vsizetype="Fixed">
          <horstretch>0</horstretch>
          <verstretch>0</verstretch>
         </sizepolicy>
        </property>
        <property name="toolTip">
         <string>&lt;html&gt;&lt;head/&gt;&lt;body&gt;&lt;p&gt;Select table in landuse and soil database providing plantl attributes.&lt;/p&gt;&lt;/body&gt;&lt;/html&gt;</string>
        </property>
       </widget>
      </item>
      <item row="7" column="3">
       <widget class="QLabel" name="selectUrbanTableLabel">
        <property name="text">
         <string>Urban table  </string>
        </property>
        <property name="alignment">
         <set>Qt::AlignRight|Qt::AlignTrailing|Qt::AlignVCenter</set>
        </property>
       </widget>
      </item>
      <item row="7" column="4">
       <widget class="QComboBox" name="selectUrbanTable">
        <property name="sizePolicy">
         <sizepolicy hsizetype="MinimumExpanding" vsizetype="Fixed">
          <horstretch>0</horstretch>
          <verstretch>0</verstretch>
         </sizepolicy>
        </property>
        <property name="toolTip">
         <string>&lt;html&gt;&lt;head/&gt;&lt;body&gt;&lt;p&gt;Select table in landuse and soil database providing urban landuse attributes.&lt;/p&gt;&lt;/body&gt;&lt;/html&gt;</string>
        </property>
       </widget>
      </item>
      <item row="7" column="5">
       <widget class="QLabel" name="selectUsersoilTableLabel">
        <property name="text">
         <string>Usersoil table  </string>
        </property>
        <property name="scaledContents">
         <bool>false</bool>
        </property>
        <property name="alignment">
         <set>Qt::AlignRight|Qt::AlignTrailing|Qt::AlignVCenter</set>
        </property>
       </widget>
      </item>
      <item row="7" column="6">
       <widget class="QComboBox" name="selectUsersoilTable">
        <property name="sizePolicy">
         <sizepolicy hsizetype="MinimumExpanding" vsizetype="Fixed">
          <horstretch>0</horstretch>
          <verstretch>0</verstretch>
         </sizepolicy>
        </property>
        <property name="toolTip">
         <string>&lt;html&gt;&lt;head/&gt;&lt;body&gt;&lt;p&gt;Select table in landuse and soil database providing soil attributes.&lt;/p&gt;&lt;/body&gt;&lt;/html&gt;</string>
        </property>
       </widget>
      </item>
      <item row="1" column="0" colspan="6">
       <widget class="QLineEdit" name="selectLanduse"/>
      </item>
      <item row="3" column="0" colspan="6">
       <widget class="QLineEdit" name="selectSoil"/>
      </item>
      <item row="6" column="0" colspan="6">
       <widget class="QLineEdit" name="plantSoilDatabase">
        <property name="sizePolicy">
         <sizepolicy hsizetype="Expanding" vsizetype="Fixed">
          <horstretch>0</horstretch>
          <verstretch>0</verstretch>
         </sizepolicy>
        </property>
       </widget>
      </item>
      <item row="5" column="0" colspan="3">
       <widget class="QLabel" name="dbLabel">
        <property name="text">
         <string>Select landuse and soil database</string>
        </property>
       </widget>
      </item>
     </layout>
    </widget>
   </item>
   <item row="1" column="0" colspan="3">
    <widget class="QWidget" name="widget" native="true">
     <property name="sizePolicy">
      <sizepolicy hsizetype="Preferred" vsizetype="Preferred">
       <horstretch>0</horstretch>
       <verstretch>0</verstretch>
      </sizepolicy>
     </property>
     <layout class="QGridLayout" name="gridLayout_13">
      <item row="0" column="1">
       <widget class="QComboBox" name="floodplainCombo">
        <property name="sizePolicy">
         <sizepolicy hsizetype="Expanding" vsizetype="Fixed">
          <horstretch>0</horstretch>
          <verstretch>0</verstretch>
         </sizepolicy>
        </property>
        <property name="toolTip">
         <string/>
        </property>
        <property name="maxVisibleItems">
         <number>20</number>
        </property>
       </widget>
      </item>
      <item row="3" column="2" colspan="2">
       <widget class="QLabel" name="fullHRUsLabel">
        <property name="sizePolicy">
         <sizepolicy hsizetype="Preferred" vsizetype="Preferred">
          <horstretch>0</horstretch>
          <verstretch>0</verstretch>
         </sizepolicy>
        </property>
        <property name="text">
         <string>Full HRUs count:   </string>
        </property>
       </widget>
      </item>
      <item row="1" column="1" rowspan="3">
       <widget class="QGroupBox" name="readChoiceGroup">
        <property name="sizePolicy">
         <sizepolicy hsizetype="Preferred" vsizetype="Preferred">
          <horstretch>0</horstretch>
          <verstretch>0</verstretch>
         </sizepolicy>
        </property>
        <property name="title">
         <string>Read choice</string>
        </property>
        <layout class="QGridLayout" name="gridLayout">
         <item row="2" column="0">
          <widget class="QRadioButton" name="readFromPrevious">
           <property name="sizePolicy">
            <sizepolicy hsizetype="Expanding" vsizetype="Fixed">
             <horstretch>0</horstretch>
             <verstretch>0</verstretch>
            </sizepolicy>
           </property>
           <property name="text">
            <string>Read from previous run</string>
           </property>
          </widget>
         </item>
         <item row="3" column="0">
          <widget class="QRadioButton" name="remerge">
           <property name="sizePolicy">
            <sizepolicy hsizetype="Expanding" vsizetype="Fixed">
             <horstretch>0</horstretch>
             <verstretch>0</verstretch>
            </sizepolicy>
           </property>
           <property name="text">
            <string>Re-merge short channels</string>
           </property>
          </widget>
         </item>
         <item row="0" column="0">
          <widget class="QRadioButton" name="readFromMaps">
           <property name="sizePolicy">
            <sizepolicy hsizetype="Expanding" vsizetype="Fixed">
             <horstretch>0</horstretch>
             <verstretch>0</verstretch>
            </sizepolicy>
           </property>
           <property name="text">
            <string>Read from maps</string>
           </property>
           <property name="checked">
            <bool>true</bool>
           </property>
          </widget>
         </item>
        </layout>
       </widget>
      </item>
      <item row="0" column="2" colspan="2">
       <widget class="QCheckBox" name="generateFullHRUs">
        <property name="sizePolicy">
         <sizepolicy hsizetype="Preferred" vsizetype="Fixed">
          <horstretch>0</horstretch>
          <verstretch>0</verstretch>
         </sizepolicy>
        </property>
        <property name="toolTip">
         <string>&lt;!DOCTYPE HTML PUBLIC &quot;-//W3C//DTD HTML 4.0//EN&quot; &quot;http://www.w3.org/TR/REC-html40/strict.dtd&quot;&gt;
&lt;html&gt;&lt;head&gt;&lt;meta name=&quot;qrichtext&quot; content=&quot;1&quot; /&gt;&lt;style type=&quot;text/css&quot;&gt;
p, li { white-space: pre-wrap; }
&lt;/style&gt;&lt;/head&gt;&lt;body style=&quot; font-family:'MS Shell Dlg 2'; font-size:8.25pt; font-weight:400; font-style:normal;&quot;&gt;
&lt;p style=&quot; margin-top:0px; margin-bottom:0px; margin-left:0px; margin-right:0px; -qt-block-indent:0; text-indent:0px;&quot;&gt;&lt;span style=&quot; font-size:8pt;&quot;&gt;Check to create and load a shapefile showing all the potential HRUs.&lt;/span&gt;&lt;/p&gt;
&lt;p style=&quot;-qt-paragraph-type:empty; margin-top:0px; margin-bottom:0px; margin-left:0px; margin-right:0px; -qt-block-indent:0; text-indent:0px; font-size:8pt;&quot;&gt;&lt;/p&gt;
&lt;p style=&quot; margin-top:0px; margin-bottom:0px; margin-left:0px; margin-right:0px; -qt-block-indent:0; text-indent:0px;&quot;&gt;&lt;span style=&quot; font-size:8pt;&quot;&gt;You will need this file if you intend to visualise HRU results.&lt;/span&gt;&lt;/p&gt;
&lt;p style=&quot;-qt-paragraph-type:empty; margin-top:0px; margin-bottom:0px; margin-left:0px; margin-right:0px; -qt-block-indent:0; text-indent:0px; font-size:8pt;&quot;&gt;&lt;/p&gt;&lt;/body&gt;&lt;/html&gt;</string>
        </property>
        <property name="text">
         <string>Generate FullHRUs
 shapefile</string>
        </property>
       </widget>
      </item>
      <item row="4" column="1">
       <widget class="QGroupBox" name="shortChannelGroup">
        <property name="sizePolicy">
         <sizepolicy hsizetype="Preferred" vsizetype="Preferred">
          <horstretch>0</horstretch>
          <verstretch>0</verstretch>
         </sizepolicy>
        </property>
        <property name="toolTip">
         <string>&lt;html&gt;&lt;head/&gt;&lt;body&gt;&lt;p&gt;Short channels can occur when stream junctions happen to be close together. There is an option to merge them, and hence their landscape units, by selecting a threshold of either a percentage of the subbasin area or an area in hectares. Channels with a drainage area less than the threshold will, where possible, be merged with a downstream channel. Channels are not merged if they have a user-defined reservoir, or if the downstream channel is in a different subbasin. Setting the threshold to zero prevents any merging.&lt;/p&gt;&lt;/body&gt;&lt;/html&gt;</string>
        </property>
        <property name="title">
         <string>Short channel merge</string>
        </property>
        <layout class="QGridLayout" name="gridLayout_4">
         <item row="0" column="0">
          <widget class="QRadioButton" name="channelPercentButton">
           <property name="text">
            <string>Percent of subbasin</string>
           </property>
           <property name="checked">
            <bool>true</bool>
           </property>
          </widget>
         </item>
         <item row="0" column="1">
          <widget class="QRadioButton" name="channelAreaButton">
           <property name="text">
            <string>Area (ha)</string>
           </property>
          </widget>
         </item>
         <item row="1" column="0">
          <widget class="QSlider" name="channelMergeSlider">
           <property name="sizePolicy">
            <sizepolicy hsizetype="Expanding" vsizetype="Fixed">
             <horstretch>0</horstretch>
             <verstretch>0</verstretch>
            </sizepolicy>
           </property>
           <property name="maximum">
            <number>100</number>
           </property>
           <property name="orientation">
            <enum>Qt::Horizontal</enum>
           </property>
           <property name="tickPosition">
            <enum>QSlider::TicksAbove</enum>
           </property>
          </widget>
         </item>
         <item row="1" column="1">
          <widget class="QLineEdit" name="channelMergeVal">
           <property name="maximumSize">
            <size>
             <width>40</width>
             <height>16777215</height>
            </size>
           </property>
           <property name="text">
            <string>0</string>
           </property>
          </widget>
         </item>
        </layout>
       </widget>
      </item>
      <item row="1" column="2" colspan="2">
       <widget class="QLabel" name="subbasinsLabel">
        <property name="sizePolicy">
         <sizepolicy hsizetype="Preferred" vsizetype="Preferred">
          <horstretch>0</horstretch>
          <verstretch>0</verstretch>
         </sizepolicy>
        </property>
        <property name="text">
         <string>Subbasins count:  </string>
        </property>
       </widget>
      </item>
      <item row="2" column="2" colspan="2">
       <widget class="QLabel" name="channelsLabel">
        <property name="sizePolicy">
         <sizepolicy hsizetype="Preferred" vsizetype="Preferred">
          <horstretch>0</horstretch>
          <verstretch>0</verstretch>
         </sizepolicy>
        </property>
        <property name="text">
         <string>Channels count:  </string>
        </property>
       </widget>
      </item>
      <item row="0" column="0" rowspan="4">
       <widget class="QGroupBox" name="slopeGroup">
        <property name="sizePolicy">
         <sizepolicy hsizetype="Preferred" vsizetype="Preferred">
          <horstretch>0</horstretch>
          <verstretch>0</verstretch>
         </sizepolicy>
        </property>
        <property name="maximumSize">
         <size>
          <width>150</width>
          <height>16777215</height>
         </size>
        </property>
        <property name="title">
         <string>Set slope bands (%)</string>
        </property>
        <layout class="QGridLayout" name="gridLayout_3">
         <item row="1" column="1">
          <widget class="QPushButton" name="clearButton">
           <property name="sizePolicy">
            <sizepolicy hsizetype="MinimumExpanding" vsizetype="Fixed">
             <horstretch>0</horstretch>
             <verstretch>0</verstretch>
            </sizepolicy>
           </property>
           <property name="toolTip">
            <string>Cancel all slope bands</string>
           </property>
           <property name="text">
            <string>Clear</string>
           </property>
           <property name="autoDefault">
            <bool>false</bool>
           </property>
          </widget>
         </item>
         <item row="0" column="0">
          <widget class="QLineEdit" name="slopeBand">
           <property name="toolTip">
            <string>Enter a slope percent value to be a new boundary between slope bands.</string>
           </property>
          </widget>
         </item>
         <item row="2" column="0" colspan="2">
          <widget class="QLabel" name="slopeBandsLabel">
           <property name="text">
            <string>Slope bands</string>
           </property>
          </widget>
         </item>
         <item row="3" column="0" colspan="2">
          <widget class="QLineEdit" name="slopeBrowser">
           <property name="readOnly">
            <bool>true</bool>
           </property>
          </widget>
         </item>
         <item row="1" column="0">
          <spacer name="horizontalSpacer">
           <property name="orientation">
            <enum>Qt::Horizontal</enum>
           </property>
           <property name="sizeHint" stdset="0">
            <size>
             <width>40</width>
             <height>20</height>
            </size>
           </property>
          </spacer>
         </item>
         <item row="0" column="1">
          <widget class="QPushButton" name="insertButton">
           <property name="sizePolicy">
            <sizepolicy hsizetype="MinimumExpanding" vsizetype="Fixed">
             <horstretch>0</horstretch>
             <verstretch>0</verstretch>
            </sizepolicy>
           </property>
           <property name="toolTip">
            <string>Insert a new division between slope bands</string>
           </property>
           <property name="text">
            <string>Insert</string>
           </property>
           <property name="autoDefault">
            <bool>false</bool>
           </property>
          </widget>
         </item>
        </layout>
        <zorder>clearButton</zorder>
        <zorder>slopeBand</zorder>
        <zorder>slopeBandsLabel</zorder>
        <zorder>slopeBrowser</zorder>
        <zorder>horizontalSpacer</zorder>
        <zorder>insertButton</zorder>
       </widget>
      </item>
      <item row="4" column="2">
       <spacer name="horizontalSpacer_4">
        <property name="orientation">
         <enum>Qt::Horizontal</enum>
        </property>
        <property name="sizeHint" stdset="0">
         <size>
          <width>58</width>
          <height>20</height>
         </size>
        </property>
       </spacer>
      </item>
      <item row="4" column="3">
       <widget class="QPushButton" name="readButton">
        <property name="sizePolicy">
         <sizepolicy hsizetype="MinimumExpanding" vsizetype="Fixed">
          <horstretch>0</horstretch>
          <verstretch>0</verstretch>
         </sizepolicy>
        </property>
        <property name="toolTip">
         <string>Read watershed, landuse, and soil data to create potential HRUs.</string>
        </property>
        <property name="text">
         <string>Read</string>
        </property>
        <property name="autoDefault">
         <bool>false</bool>
        </property>
       </widget>
      </item>
      <item row="4" column="0">
       <spacer name="horizontalSpacer_5">
        <property name="orientation">
         <enum>Qt::Horizontal</enum>
        </property>
        <property name="sizeType">
         <enum>QSizePolicy::Preferred</enum>
        </property>
        <property name="sizeHint" stdset="0">
         <size>
          <width>148</width>
          <height>20</height>
         </size>
        </property>
       </spacer>
      </item>
     </layout>
     <zorder>floodplainCombo</zorder>
     <zorder>fullHRUsLabel</zorder>
     <zorder>readChoiceGroup</zorder>
     <zorder>generateFullHRUs</zorder>
     <zorder>shortChannelGroup</zorder>
     <zorder>subbasinsLabel</zorder>
     <zorder>channelsLabel</zorder>
     <zorder>slopeGroup</zorder>
     <zorder>horizontalSpacer_4</zorder>
     <zorder>readButton</zorder>
     <zorder>horizontalSpacer_5</zorder>
    </widget>
   </item>
   <item row="2" column="0">
    <widget class="QGroupBox" name="reservoirBox">
     <property name="sizePolicy">
      <sizepolicy hsizetype="Preferred" vsizetype="Preferred">
       <horstretch>0</horstretch>
       <verstretch>0</verstretch>
      </sizepolicy>
     </property>
     <property name="toolTip">
      <string>&lt;html&gt;&lt;head/&gt;&lt;body&gt;&lt;p&gt;Percent of area that mus tbe water to form a reservoir for this channel. The area is the area draining to the channel if no landscape, else the floodplain of the channel.  The default setting of 101 means tht no reservoirs will be formed other than those selected during delineation.&lt;/p&gt;&lt;/body&gt;&lt;/html&gt;</string>
     </property>
     <property name="title">
      <string>Reservoir threshold</string>
     </property>
     <widget class="QSpinBox" name="reservoirThreshold">
      <property name="geometry">
       <rect>
        <x>11</x>
        <y>32</y>
        <width>43</width>
        <height>20</height>
       </rect>
      </property>
      <property name="toolTip">
       <string/>
      </property>
      <property name="maximum">
       <number>101</number>
      </property>
      <property name="value">
       <number>101</number>
      </property>
     </widget>
     <widget class="QLabel" name="reservoirPercent">
      <property name="geometry">
       <rect>
        <x>63</x>
        <y>22</y>
        <width>71</width>
        <height>41</height>
       </rect>
      </property>
      <property name="sizePolicy">
       <sizepolicy hsizetype="Expanding" vsizetype="Preferred">
        <horstretch>0</horstretch>
        <verstretch>0</verstretch>
       </sizepolicy>
      </property>
      <property name="text">
       <string>% water</string>
      </property>
      <property name="wordWrap">
       <bool>true</bool>
      </property>
     </widget>
    </widget>
   </item>
   <item row="2" column="1" rowspan="2">
    <widget class="QGroupBox" name="hruChoiceGroup">
     <property name="sizePolicy">
      <sizepolicy hsizetype="Preferred" vsizetype="Preferred">
       <horstretch>0</horstretch>
       <verstretch>0</verstretch>
      </sizepolicy>
     </property>
     <property name="title">
      <string>Single/Multiple HRUs</string>
     </property>
     <layout class="QGridLayout" name="gridLayout_5">
      <item row="1" column="0">
       <widget class="QRadioButton" name="dominantHRUButton">
        <property name="sizePolicy">
         <sizepolicy hsizetype="Expanding" vsizetype="Fixed">
          <horstretch>0</horstretch>
          <verstretch>0</verstretch>
         </sizepolicy>
        </property>
        <property name="toolTip">
         <string>Select to create one HRU from each subbasin, the potential HRU with the largest area in that subbasin.</string>
        </property>
        <property name="text">
         <string>Dominant HRU</string>
        </property>
        <property name="checked">
         <bool>false</bool>
        </property>
       </widget>
      </item>
      <item row="3" column="0">
       <widget class="QRadioButton" name="filterAreaButton">
        <property name="sizePolicy">
         <sizepolicy hsizetype="Expanding" vsizetype="Fixed">
          <horstretch>0</horstretch>
          <verstretch>0</verstretch>
         </sizepolicy>
        </property>
        <property name="toolTip">
         <string>Select to remove small HRUs by setting a minimum area threshold.</string>
        </property>
        <property name="text">
         <string>Filter by area</string>
        </property>
       </widget>
      </item>
      <item row="4" column="0">
       <widget class="QRadioButton" name="targetButton">
        <property name="sizePolicy">
         <sizepolicy hsizetype="Expanding" vsizetype="Fixed">
          <horstretch>0</horstretch>
          <verstretch>0</verstretch>
         </sizepolicy>
        </property>
        <property name="toolTip">
         <string>Select to remove small HRUs by setting a target number of HRUs to be retained. 