<?xml version="1.0" encoding="UTF-8"?>
<ui version="4.0">
 <class>SelectSubbasinsDialog</class>
 <widget class="QDialog" name="SelectSubbasinsDialog">
  <property name="geometry">
   <rect>
    <x>0</x>
    <y>0</y>
    <width>370</width>
    <height>415</height>
   </rect>
  </property>
  <property name="windowTitle">
   <string>Select subbasins for merging</string>
  </property>
  <property name="windowIcon">
   <iconset resource="resources.qrc">
    <normaloff>:/plugins/QSWATPlus/swatplus.ico</normaloff>:/plugins/QSWATPlus/swatplus.ico</iconset>
  </property>
  <property name="sizeGripEnabled">
   <bool>false</bool>
  </property>
  <layout class="QGridLayout" name="gridLayout">
   <item row="0" column="0" colspan="3">
    <widget class="QLabel" name="label_2">
     <property name="text">
      <string>Hold Ctrl and click in the subbasins you want to select. Selected 
subbasins will turn yellow, and a count is shown at the bottom left 
of this window.  If you want to start again release Ctrl and 
click outside the watershed; then hold Ctrl and resume selection. 

You can pause in the selection to pan or zoom provided you hold 
Ctrl again when you resume selection.

Small subbasins selected by threshold (below) will be additional to 
those selected by clicking.

When finished click &quot;Save&quot; to save your selection, 
or &quot;Cancel&quot; to abandon the selection.</string>
     </property>
     <property name="textFormat">
      <enum>Qt::AutoText</enum>
     </property>
     <property name="alignment">
      <set>Qt::AlignLeading|Qt::AlignLeft|Qt::AlignTop</set>
     </property>
     <property name="wordWrap">
      <bool>false</bool>
     </property>
    </widget>
   </item>
   <item row="1" column="0">
    <widget class="QCheckBox" name="checkBox">
     <property name="text">
      <string>Select small subbasins</string>
     </property>
    </widget>
   </item>
   <item row="2" column="0" colspan="3">
    <widget class="QGroupBox" name="groupBox">
     <property name="title">
      <string>Select by threshold</string>
     </property>
     <layout class="QGridLayout" name="gridLayout_2">
      <item row="0" column="0" colspan="3">
       <widget class="QLabel" name="label">
        <property name="text">
         <string>Set a threshold for small subbasins, either as an area in hectares 
or as a percentage of the mean subbasin area.   Click the Select 
button to select subbasins below the threshold.</string>
        </property>
        <property name="wordWrap">
         <bool>false</bool>
        </property>
       </widget>
      </item>
      <item row="1" column="0">
       <widget class="QRadioButton" name="areaButton">
        <property name="text">
         <string>Area (ha)</string>
        </property>
       </widget>
      </item>
      <item row="1" column="1" rowspan="2">
       <widget class="QLineEdit" name="threshold">
        <property name="toolTip">
         <string>The maximum distance a point may be moved to place it on the stream network (snapped).  Points which would require more than this distance will not be used.</string>
        </property>
        <property name="inputMethodHints">
         <set>Qt::ImhFormattedNumbersOnly</set>
        </property>
       </widget>
      </item>
      <item row="1" column="2" rowspan="2">
       <widget class="QPushButton" name="pushButton">
        <property name="text">
         <string>Select</string>
        </property>
       </widget>
      </item>
      <item row="2" column="0">
       <widget class="QRadioButton" name="percentButton">
        <property name="text">
         <string>Percentage of mean area</string>
        </property>
       </widget>
      </item>
     </layout>
    </widget>
   </item>
   <item row="3" column="0">
    <widget class="QLabel" name="count">
     <property name="text">
      <string>0 selected</string>
     </property>
    </widget>
   </item>
   <item row="3" column="1">
    <widget class="QPushButton" name="saveButton">
     <property name="text">
      <string>Save</string>
     </property>
    </widget>
   </item>
   <item row="3" column="2">
    <widget class="QPushButton" name="cancelButton">
     <property name="text">
      <string>Cancel</string>
     </property>
    </widget>
   </item>
  </layout>
 </widget>
 <resources>
  <include location="resources.qrc"/>
 </resources>
 <connections/>
</ui>
