<?xml version="1.0" encoding="UTF-8"?>
<ui version="4.0">
 <class>VisualiseDialog</class>
 <widget class="QDialog" name="VisualiseDialog">
  <property name="geometry">
   <rect>
    <x>0</x>
    <y>0</y>
    <width>457</width>
    <height>634</height>
   </rect>
  </property>
  <property name="sizePolicy">
   <sizepolicy hsizetype="Preferred" vsizetype="Preferred">
    <horstretch>0</horstretch>
    <verstretch>0</verstretch>
   </sizepolicy>
  </property>
  <property name="minimumSize">
   <size>
    <width>0</width>
    <height>0</height>
   </size>
  </property>
  <property name="maximumSize">
   <size>
    <width>16777215</width>
    <height>16777215</height>
   </size>
  </property>
  <property name="windowTitle">
   <string>Visualise Results</string>
  </property>
  <property name="windowIcon">
   <iconset resource="resources.qrc">
    <normaloff>:/plugins/QSWATPlus/swatplus.ico</normaloff>:/plugins/QSWATPlus/swatplus.ico</iconset>
  </property>
  <layout class="QGridLayout" name="gridLayout_17">
   <item row="0" column="0">
    <widget class="QWidget" name="widget" native="true">
     <layout class="QGridLayout" name="gridLayout_13">
      <item row="0" column="0">
       <widget class="QGroupBox" name="scenarioBox">
        <property name="title">
         <string>Choose scenario</string>
        </property>
        <layout class="QGridLayout" name="gridLayout_5">
         <item row="0" column="0">
          <widget class="QComboBox" name="scenariosCombo">
           <property name="minimumSize">
            <size>
             <width>126</width>
             <height>0</height>
            </size>
           </property>
          </widget>
         </item>
        </layout>
       </widget>
      </item>
      <item row="0" column="1">
       <widget class="QGroupBox" name="outputBox">
        <property name="title">
         <string>Choose SWAT+ output table</string>
        </property>
        <layout class="QGridLayout" name="gridLayout_6">
         <item row="0" column="0">
          <widget class="QComboBox" name="outputCombo">
           <property name="minimumSize">
            <size>
             <width>126</width>
             <height>0</height>
            </size>
           </property>
          </widget>
         </item>
        </layout>
       </widget>
      </item>
      <item row="2" column="0" colspan="2">
       <widget class="QWidget" name="widget_3" native="true">
        <property name="minimumSize">
         <size>
          <width>421</width>
          <height>391</height>
         </size>
        </property>
        <layout class="QGridLayout" name="gridLayout_12">
         <item row="0" column="0">
          <widget class="QTabWidget" name="tabWidget">
           <property name="sizePolicy">
            <sizepolicy hsizetype="Expanding" vsizetype="Expanding">
             <horstretch>0</horstretch>
             <verstretch>0</verstretch>
            </sizepolicy>
           </property>
           <property name="currentIndex">
            <number>0</number>
           </property>
           <widget class="QWidget" name="staticTab">
            <attribute name="title">
             <string>Static data</string>
            </attribute>
            <layout class="QGridLayout" name="gridLayout_16">
             <item row="0" column="0" colspan="2">
              <widget class="QGroupBox" name="resultsFileBox">
               <property name="sizePolicy">
                <sizepolicy hsizetype="Preferred" vsizetype="Preferred">
                 <horstretch>0</horstretch>
                 <verstretch>0</verstretch>
                </sizepolicy>
               </property>
               <property name="title">
                <string>Choose results shapefile</string>
               </property>
               <widget class="QLineEdit" name="resultsFileEdit">
                <property name="geometry">
                 <rect>
                  <x>11</x>
                  <y>26</y>
                  <width>301</width>
                  <height>20</height>
                 </rect>
                </property>
               </widget>
               <widget class="QPushButton" name="resultsFileButton">
                <property name="geometry">
                 <rect>
                  <x>319</x>
                  <y>24</y>
                  <width>51</width>
                  <height>25</height>
                 </rect>
                </property>
                <property name="text">
                 <string>...</string>
                </property>
               </widget>
              </widget>
             </item>
             <item row="1" column="0" rowspan="3">
              <widget class="QGroupBox" name="variablesBox">
               <property name="title">
                <string>Choose variables</string>
               </property>
               <layout class="QGridLayout" name="gridLayout_15">
                <item row="0" column="1">
                 <widget class="QComboBox" name="variableCombo">
                  <property name="toolTip">
                   <string>Select variable to be added to list.</string>
                  </property>
                 </widget>
                </item>
                <item row="1" column="0">
                 <widget class="QPushButton" name="addButton">
                  <property name="toolTip">
                   <string>Add chosen variable to list.</string>
                  </property>
                  <property name="text">
                   <string>Add</string>
                  </property>
                 </widget>
                </item>
                <item row="1" column="1" rowspan="4">
                 <widget class="QListWidget" name="variableList">
                  <property name="font">
                   <font>
                    <family>MS Shell Dlg 2</family>
                   </font>
                  </property>
                  <property name="toolTip">
                   <string>List of variables to be included in results file.  One must be selected before you click Create.</string>
                  </property>
                  <property name="editTriggers">
                   <set>QAbstractItemView::NoEditTriggers</set>
                  </property>
                  <property name="showDropIndicator" stdset="0">
                   <bool>false</bool>
                  </property>
                 </widget>
                </item>
                <item row="2" column="0">
                 <widget class="QPushButton" name="allButton">
                  <property name="toolTip">
                   <string>Add all variables in current output table to list</string>
                  </property>
                  <property name="text">
                   <string>All</string>
                  </property>
                 </widget>
                </item>
                <item row="3" column="0">
                 <widget class="QPushButton" name="delButton">
                  <property name="toolTip">
                   <string>Delete selected variable from list.</string>
                  </property>
                  <property name="text">
                   <string>Del</string>
                  </property>
                 </widget>
                </item>
                <item row="4" column="0">
                 <widget class="QPushButton" name="clearButton">
                  <property name="toolTip">
                   <string>Remove all variables from the list.</string>
                  </property>
                  <property name="text">
                   <string>Clear</string>
                  </property>
                 </widget>
                </item>
               </layout>
              </widget>
             </item>
             <item row="1" column="1">
              <widget class="QGroupBox" name="summaryBox">
               <property name="title">
                <string>Choose summary</string>
               </property>
               <layout class="QGridLayout" name="gridLayout_14">
                <item row="0" column="0">
                 <widget class="QComboBox" name="summaryCombo">
                  <property name="minimumSize">
                   <size>
                    <width>126</width>
                    <height>0</height>
                   </size>
                  </property>
                 </widget>
                </item>
               </layout>
              </widget>
             </item>
             <item row="2" column="1">
              <spacer name="verticalSpacer">
               <property name="orientation">
                <enum>Qt::Vertical</enum>
               </property>
               <property name="sizeHint" stdset="0">
                <size>
                 <width>20</width>
                 <height>126</height>
                </size>
               </property>
              </spacer>
             </item>
             <item row="3" column="1">
              <widget class="QPushButton" name="saveButton">
               <property name="toolTip">
                <string>Write data to results shapefile and display summary values for selected variable.</string>
               </property>
               <property name="text">
                <string>Create</string>
               </property>
              </widget>
             </item>
             <item row="4" column="0" colspan="2">
              <widget class="QGroupBox" name="printGroup">
               <property name="title">
                <string>Print</string>
               </property>
               <layout class="QGridLayout" name="gridLayout_4">
                <item row="0" column="0">
                 <widget class="QRadioButton" name="landscapeButton">
                  <property name="text">
                   <string>Landscape</string>
                  </property>
                  <property name="checked">
                   <bool>true</bool>
                  </property>
                 </widget>
                </item>
                <item row="0" column="1">
                 <widget class="QRadioButton" name="portraitButton">
                  <property name="text">
                   <string>Portrait</string>
                  </property>
                 </widget>
                </item>
                <item row="0" column="2">
                 <widget class="QLabel" name="label_15">
                  <property name="text">
                   <string>Number of maps</string>
                  </property>
                 </widget>
                </item>
                <item row="0" column="3">
                 <widget class="QSpinBox" name="printCount">
                  <property name="minimum">
                   <number>1</number>
                  </property>
                  <property name="maximum">
                   <number>6</number>
                  </property>
                 </widget>
                </item>
                <item row="0" column="4">
                 <widget class="QPushButton" name="printButton">
                  <property name="toolTip">
                   <string>Create print composition.</string>
                  </property>
                  <property name="text">
                   <string>Print</string>
                  </property>
                 </widget>
                </item>
               </layout>
              </widget>
             </item>
            </layout>
           </widget>
           <widget class="QWidget" name="animationTab">
            <attribute name="title">
             <string>Animation</string>
            </attribute>
            <layout class="QGridLayout" name="gridLayout_9">
             <item row="1" column="2">
              <widget class="QLabel" name="calculateLabel">
               <property name="text">
                <string/>
               </property>
              </widget>
             </item>
             <item row="2" column="0" colspan="8">
              <widget class="QGroupBox" name="composeOptions">
               <property name="title">
                <string>Composer options</string>
               </property>
               <layout class="QHBoxLayout" name="horizontalLayout_3">
                <item>
                 <widget class="QRadioButton" name="composeLandscape">
                  <property name="text">
                   <string>Landscape</string>
                  </property>
                  <property name="checked">
                   <bool>true</bool>
                  </property>
                 </widget>
                </item>
                <item>
                 <widget class="QRadioButton" name="composePortrait">
                  <property name="text">
                   <string>Portrait</string>
                  </property>
                 </widget>
                </item>
                <item>
                 <widget class="QLabel" name="label_16">
                  <property name="text">
                   <string>Number of maps</string>
                  </property>
                 </widget>
                </item>
                <item>
                 <widget class="QSpinBox" name="composeCount">
                  <property name="minimum">
                   <number>1</number>
                  </property>
                  <property name="maximum">
                   <number>6</number>
                  </property>
                 </widget>
                </item>
               </layout>
              </widget>
             </item>
             <item row="3" column="0" colspan="6">
              <spacer name="horizontalSpacer_2">
               <property name="orientation">
                <enum>Qt::Horizontal</enum>
               </property>
               <property name="sizeHint" stdset="0">
                <size>
                 <width>233</width>
                 <height>20</height>
                </size>
               </property>
              </spacer>
             </item>
             <item row="3" column="6">
              <widget class="QCommandLinkButton" name="playCommand">
               <property name="sizePolicy">
                <sizepolicy hsizetype="Fixed" vsizetype="Fixed">
                 <horstretch>0</horstretch>
                 <verstretch>0</verstretch>
                </sizepolicy>
               </property>
               <property name="minimumSize">
                <size>
                 <width>41</width>
                 <height>41</height>
                </size>
               </property>
               <property name="maximumSize">
                <size>
                 <width>41</width>
                 <height>41</height>
                </size>
               </property>
               <property name="toolTip">
                <string>Start button</string>
               </property>
               <property name="text">
                <string/>
               </property>
               <property name="icon">
                <iconset resource="resources.qrc">
                 <normaloff>:/plugins/QSWATPlus/play-24x24.png</normaloff>:/plugins/QSWATPlus/play-24x24.png</iconset>
               </property>
               <property name="iconSize">
                <size>
                 <width>24</width>
                 <height>24</height>
                </size>
               </property>
              </widget>
             </item>
             <item row="3" column="7">
              <widget class="QCommandLinkButton" name="pauseCommand">
               <property name="sizePolicy">
                <sizepolicy hsizetype="Fixed" vsizetype="Fixed">
                 <horstretch>0</horstretch>
                 <verstretch>0</verstretch>
                </sizepolicy>
               </property>
               <property name="minimumSize">
                <size>
                 <width>41</width>
                 <height>41</height>
                </size>
               </property>
               <property name="maximumSize">
                <size>
                 <width>41</width>
                 <height>41</height>
                </size>
               </property>
               <property name="toolTip">
                <string>Pause button</string>
               </property>
               <property name="text">
                <string/>
               </property>
               <property name="icon">
                <iconset resource="resources.qrc">
                 <normaloff>:/plugins/QSWATPlus/pause-24x24.png</normaloff>:/plugins/QSWATPlus/pause-24x24.png</iconset>
               </property>
               <property name="iconSize">
                <size>
                 <width>24</width>
                 <height>24</height>
                </size>
               </property>
              </widget>
             </item>
             <item row="3" column="8">
              <widget class="QCommandLinkButton" name="rewindCommand">
               <property name="sizePolicy">
                <sizepolicy hsizetype="Fixed" vsizetype="Fixed">
                 <horstretch>0</horstretch>
                 <verstretch>0</verstretch>
                </sizepolicy>
               </property>
               <property name="minimumSize">
                <size>
                 <width>41</width>
                 <height>41</height>
                </size>
               </property>
               <property name="maximumSize">
                <size>
                 <width>41</width>
                 <height>41</height>
                </size>
               </property>
               <property name="toolTip">
                <string>Rewind button</string>
               </property>
               <property name="text">
                <string/>
               </property>
               <property name="icon">
                <iconset resource="resources.qrc">
                 <normaloff>:/plugins/QSWATPlus/rewind-24x24.png</normaloff>:/plugins/QSWATPlus/rewind-24x24.png</iconset>
               </property>
               <property name="iconSize">
                <size>
                 <width>24</width>
                 <height>24</height>
                </size>
               </property>
              </widget>
             </item>
             <item row="4" column="0" colspan="9">
              <widget class="QLabel" name="dateLabel">
               <property name="text">
                <string>Date</string>
               </property>
               <property name="alignment">
                <set>Qt::AlignCenter</set>
               </property>
              </widget>
             </item>
             <item row="5" column="0" colspan="9">
              <widget class="QSlider" name="slider">
               <property name="toolTip">
                <string>Slider to control currently diplayed date and data.  
Slider may be driven automatically at set speed by clicking start button. 
Can also be controlled manually by dragging or by using left and right arrows on keyboard.</string>
               </property>
               <property name="minimum">
                <number>1</number>
               </property>
               <property name="sliderPosition">
                <number>1</number>
               </property>
               <property name="orientation">
                <enum>Qt::Horizontal</enum>
               </property>
               <property name="tickPosition">
                <enum>QSlider::TicksBelow</enum>
               </property>
              </widget>
             </item>
             <item row="6" column="7">
              <widget class="QLabel" name="label">
               <property name="text">
                <string>Speed</string>
               </property>
              </widget>
             </item>
             <item row="6" column="8">
              <widget class="QSpinBox" name="spinBox">
               <property name="toolTip">
                <string>Change speed of animation.  Larger numbers mean increased speed.</string>
               </property>
               <property name="minimum">
                <number>1</number>
               </property>
               <property name="maximum">
                <number>100</number>
               </property>
              </widget>
             </item>
             <item row="7" column="1" colspan="3">
              <widget class="QLabel" name="recordLabel">
               <property name="text">
                <string>Start recording</string>
               </property>
              </widget>
             </item>
             <item row="7" column="4">
              <widget class="QPushButton" name="playButton">
               <property name="text">
                <string>Play</string>
               </property>
               <property name="flat">
                <bool>false</bool>
               </property>
              </widget>
             </item>
             <item row="7" column="5" colspan="3">
              <widget class="QLabel" name="label_14">
               <property name="text">
                <string>Play recording</string>
               </property>
              </widget>
             </item>
             <item row="1" column="0" colspan="2">
              <widget class="QGroupBox" name="groupBox">
               <property name="sizePolicy">
                <sizepolicy hsizetype="Preferred" vsizetype="Preferred">
                 <horstretch>0</horstretch>
                 <verstretch>0</verstretch>
                </sizepolicy>
               </property>
               <property name="minimumSize">
                <size>
                 <width>200</width>
                 <height>0</height>
                </size>
               </property>
               <property name="title">
                <string>Animation mode</string>
               </property>
               <layout class="QHBoxLayout" name="horizontalLayout_2">
                <item>
                 <widget class="QRadioButton" name="canvasAnimation">
                  <property name="sizePolicy">
                   <sizepolicy hsizetype="Minimum" vsizetype="Fixed">
                    <horstretch>0</horstretch>
                    <verstretch>0</verstretch>
                   </sizepolicy>
                  </property>
                  <property name="toolTip">
                   <string>Animation will be shown in map canvas, using sole or currently selected animation file</string>
                  </property>
                  <property name="text">
                   <string>Map canvas</string>
                  </property>
                  <property name="checked">
                   <bool>true</bool>
                  </property>
                 </widget>
                </item>
                <item>
                 <widget class="QRadioButton" name="printAnimation">
                  <property name="sizePolicy">
                   <sizepolicy hsizetype="Minimum" vsizetype="Fixed">
                    <horstretch>0</horstretch>
                    <verstretch>0</verstretch>
                   </sizepolicy>
                  </property>
                  <property name="text">
                   <string>Print composer</string>
                  </property>
                 </widget>
                </item>
               </layout>
              </widget>
             </item>
             <item row="0" column="0" colspan="9">
              <widget class="QGroupBox" name="animationSetup">
               <property name="minimumSize">
                <size>
                 <width>0</width>
                 <height>0</height>
                </size>
               </property>
               <property name="title">
                <string>Set up animation</string>
               </property>
               <layout class="QGridLayout" name="gridLayout_10">
                <item row="0" column="0">
                 <widget class="QRadioButton" name="newAnimation">
                  <property name="toolTip">
                   <string>Create new animation file</string>
                  </property>
                  <property name="text">
                   <string>New</string>
                  </property>
                  <property name="checked">
                   <bool>true</bool>
                  </property>
                 </widget>
                </item>
                <item row="0" column="1">
                 <widget class="QRadioButton" name="currentAnimation">
                  <property name="toolTip">
                   <string>&lt;html&gt;&lt;head/&gt;&lt;body&gt;&lt;p&gt;Change sole or currently selected animation file&lt;/p&gt;&lt;/body&gt;&lt;/html&gt;</string>
                  </property>
                  <property name="text">
                   <string>Current</string>
                  </property>
                 </widget>
                </item>
                <item row="0" column="3">
                 <widget class="QComboBox" name="animationVariableCombo">
                  <property name="minimumSize">
                   <size>
                    <width>150</width>
                    <height>0</height>
                   </size>
                  </property>
                  <property name="toolTip">
                   <string>Select variable for animation</string>
                  </property>
                 </widget>
                </item>
                <item row="0" column="2">
                 <widget class="QLabel" name="label_2">
                  <property name="text">
                   <string>Variable  </string>
                  </property>
                  <property name="alignment">
                   <set>Qt::AlignRight|Qt::AlignTrailing|Qt::AlignVCenter</set>
                  </property>
                 </widget>
                </item>
               </layout>
              </widget>
             </item>
             <item row="7" column="0">
              <widget class="QPushButton" name="recordButton">
               <property name="sizePolicy">
                <sizepolicy hsizetype="Fixed" vsizetype="Fixed">
                 <horstretch>0</horstretch>
                 <verstretch>0</verstretch>
                </sizepolicy>
               </property>
               <property name="minimumSize">
                <size>
                 <width>40</width>
                 <height>25</height>
                </size>
               </property>
               <property name="styleSheet">
                <string notr="true">background-color: green; border: none;</string>
               </property>
               <property name="text">
                <string notr="true"/>
               </property>
              </widget>
             </item>
            </layout>
           </widget>
           <widget class="QWidget" name="tab">
            <attribute name="title">
             <string>Plot</string>
            </attribute>
            <layout class="QGridLayout" name="gridLayout_3">
             <item row="0" column="0" colspan="6">
              <widget class="QGroupBox" name="observedFileBox">
               <property name="title">
                <string>Choose observed data file (optional)</string>
               </property>
               <layout class="QGridLayout" name="gridLayout">
                <item row="0" column="0">
                 <widget class="QLineEdit" name="observedFileEdit"/>
                </item>
                <item row="0" column="1">
                 <widget class="QPushButton" name="observedFileButton">
                  <property name="text">
                   <string>...</string>
                  </property>
                 </widget>
                </item>
               </layout>
              </widget>
             </item>
             <item row="2" column="1">
              <widget class="QComboBox" name="unitPlot">
               <property name="toolTip">
                <string>Select a subbasin for the currently selected plot.</string>
               </property>
              </widget>
             </item>
             <item row="2" column="2">
              <widget class="QLineEdit" name="unitEdit">
               <property name="sizePolicy">
                <sizepolicy hsizetype="Fixed" vsizetype="Fixed">
                 <horstretch>0</horstretch>
                 <verstretch>0</verstretch>
                </sizepolicy>
               </property>
               <property name="maximumSize">
                <size>
                 <width>80</width>
                 <height>16777215</height>
                </size>
               </property>
              </widget>
             </item>
             <item row="2" column="3">
              <spacer name="horizontalSpacer_4">
               <property name="orientation">
                <enum>Qt::Horizontal</enum>
               </property>
               <property name="sizeType">
                <enum>QSizePolicy::Preferred</enum>
               </property>
               <property name="sizeHint" stdset="0">
                <size>
                 <width>29</width>
                 <height>20</height>
                </size>
               </property>
              </spacer>
             </item>
             <item row="2" column="4" colspan="2">
              <widget class="QComboBox" name="variablePlot">
               <property name="sizePolicy">
                <sizepolicy hsizetype="Expanding" vsizetype="Fixed">
                 <horstretch>0</horstretch>
                 <verstretch>0</verstretch>
                </sizepolicy>
               </property>
               <property name="toolTip">
                <string>Select the current plot's variable.</string>
               </property>
              </widget>
             </item>
             <item row="3" column="0">
              <widget class="QPushButton" name="addPlot">
               <property name="toolTip">